src/test/resources/com/rte_france/trm_algorithm/trmStudyTest/20241002_0330_2D3_CO_Final_CSE1.uct
##C 2007.05.01
Generated by powsybl, 2024-09-30T20:49:32.958019280+02:00[Europe/Paris]
Case date: 2024-10-02T03:30+02:00
##N
##ZAT
O6MNGN21 Meiningen    0 2 240.61 0.00000 1.50072 0.00000 -115.89 0.00000 0.00000 200.000 -200.00                               F
O6MNGN23 Meiningen    0 0        0.00000 0.00000 0.00000 0.00000
O6MNGN51 Meiningen    0 0        0.00000 0.00000 0.00000 0.00000
O6MNGN52 Meiningen    0 0        0.00000 0.00000 0.00000 0.00000
O6MNGN59 Meiningen    0 0        0.00000 0.00000 0.00000 0.00000
O6WALG21 Walgauwerk   0 2 239.97 0.00000 0.00000 -24.482 53.6648 0.00000 -86.000 200.000 -200.00                               F
O6WERB22 Werben       0 0        0.00000 0.00000 0.00000 -17.547 0.00000 0.00000 0.00000 -17.547                               F
O6WERB23 Werben       0 0        0.00000 0.00000 0.00000 -39.497 0.00000 0.00000 0.00000 -39.497                               F
O6WERB51 Werben       0 0        69.6885 0.00000 -0.9698 0.00000 0.00000 -13.514                                               F
O6WERB52 Werben       0 0        0.00000 0.00000 0.00000 0.00000
O9KIRB21 Kirchbichl   0 0        0.00000 0.00000 0.00000 -69.207 0.00000 0.00000 0.00000 -69.207                               F
O9KIRB22 Kirchbichl   0 0        0.00000 0.00000 0.00000 0.00000
O9KIRB51 Kirchbichl   0 0        134.551 0.00000 -27.489 0.00000 0.00000 -39.298                                               F
O9KIRB52 Kirchbichl   0 0        0.00000 0.00000 -8.3498 0.00000 0.00000 -10.000                                               F
O9PRUT21 Prutz        0 2 242.22 0.00000 0.00000 0.00000 -13.005 0.00000 -79.000 400.000 -400.00                               F
O9PRUT22 Prutz        0 0        0.00000 0.00000 -1.3793 -22.266 0.00000 -316.00 0.00000 -22.266                               F
O9PRUT51 Prutz        0 0 110.00 0.00000 0.00000 0.10000 0.00000 0.10000 0.00000 0.00000 -99999.                               F
O9STRA21 Strass       0 0        0.00000 0.00000 0.00000 0.00000
O9STRA22 Strass       0 0        0.00000 0.00000 0.00000 0.00000
O9THAU21 Thaur        0 0        0.00000 0.00000 0.00000 -60.773 0.00000 0.00000 0.00000 -60.773                               F
O9THAU22 Thaur        0 0        0.00000 0.00000 0.00000 0.00000
O9THAU51 Thaur        0 0        21.4450 0.00000 -26.198 0.00000 0.00000 -40.177                                               F
O9THAU52 Thaur        0 0        0.00000 0.00000 0.00000 0.00000
O9VILL21 Vill         0 2 243.05 0.00000 10.7166 0.00000 -28.876 0.00000 0.00000 200.000 -200.00                               F
O9VILL22 Vill         0 0        0.00000 0.00000 0.00000 -15.967 0.00000 0.00000 0.00000 -15.967                               F
O9VILL51 Vill         0 0        21.4450 0.00000 -38.920 0.00000 0.00000 -63.355                                               F
O9VILL52 Vill         0 0        0.00000 0.00000 0.00000 0.00000
O9YVIL21 Y_Vill       0 0        0.00000 0.00000 0.00000 0.00000
O9YVIL22 Y_Vill       0 0        0.00000 0.00000 0.00000 0.00000
OABW  51 AbwindenAste 0 0        17.0684 0.00000 -158.33 0.00000 0.00000 -189.05                                               F
OABW  52 AbwindenAste 0 0        0.00000 0.00000 0.00000 0.00000
OAIGER51 Aigerding    0 0        31.5368 0.00000 -1.2037 0.00000 0.00000 -1.3037                                               F
OALTEN21 Altenwoerth  0 0        0.00000 4.73477 -78.891 0.00000 0.00000 -123.00 4.73477 0.00000                               F
OALTEN22 Altenwoerth  0 0        0.00000 8.03184 -77.684 0.00000 0.00000 -123.00 8.03184 0.00000                               F
OALTEN23 Altenwoerth  0 0        0.00000 0.00000 -118.33 0.00000 0.00000 -123.00                                               F
OAMSCH51 AmSchuss     0 0        9.94042 0.00000 -2.0540 0.00000 0.00000 -14.915                                               F
OAMSTE51 Amstetten    0 0        67.2952 0.00000 -4.0738 0.00000 0.00000 -34.362                                               F
OAMSTE52 Amstetten    0 0        0.00000 0.00000 0.00000 0.00000
OANDAU51 Andau        0 0        0.00000 87.0000 -67.000 0.00000 -67.000 -67.000 87.0000 0.00000                               F
OANNAB51 Annaberg     0 0        8.74238 0.00000 -8.3322 0.00000 0.00000 -25.727                                               F
OANTHI51 Antiesenhofe 0 0        17.4388 0.00000 -3.7603 0.00000 0.00000 -4.5473                                               F
OARST 51 Arnstein     0 0        11.8783 0.00000 -17.823 0.00000 0.00000 -78.403                                               F
OARST 52 Arnstein     0 0        0.00000 0.00000 0.00000 0.00000
OARTHU51 Arthurwerk   0 0        0.00000 0.00000 -30.233 0.00000 0.00000 -41.000                                               F
OARTHU52 Arthurwerk   0 0        0.00000 0.00000 0.00000 0.00000
OASCHA21 Aschach      0 0        0.00000 4.87272 -124.87 0.00000 0.00000 -160.00 4.87272 0.00000                               F
OASCHA22 Aschach      0 0        0.00000 0.00000 -124.96 0.00000 0.00000 -160.00                                               F
OASPER51 Aspern       0 0        0.00000 0.00000 0.00000 0.00000
OAUEN 51 Auen         0 0        46.5500 0.00000 -27.904 0.00000 0.00000 -49.158                                               F
OAUEN 52 Auen         0 0 110.00 37.6254 0.00000 0.10000 0.00000 0.10000 0.00000 0.00000 -99999.                               F
OAUSSE51 Ausserfragan 0 0        46.7109 0.00000 -116.98 0.00000 251.000 -502.10                                               F
OAUSSE52 Ausserfragan 0 0        0.00000 0.00000 0.00000 0.00000
OBADEN51 Baden        0 0        0.00000 0.00000 0.00000 0.00000
OBAEB 51 Baernbach    0 0        27.5609 0.00000 -0.5171 0.00000 0.00000 -11.447                                               F
OBAEB 52 Baernbach    0 0        0.00000 0.00000 0.00000 0.00000
OBAUMK51 Baumkirchen  0 0        65.0808 0.00000 -96.269 0.00000 0.00000 -257.44                                               F
OBAUMK52 Baumkirchen  0 0        0.00000 0.00000 0.00000 0.00000
OBAUSS51 BadAussee    0 0        12.5145 0.00000 -0.1890 0.00000 0.00000 -0.2890                                               F
OBERGE51 Bergern      0 0        0.00000 0.00000 -129.47 0.00000 16.0000 -150.00                                               F
OBERGE52 Bergern      0 0        0.00000 0.00000 -65.775 0.00000 16.0000 -78.000                                               F
OBISAM11 Bisamberg    0 0        0.00000 1.32170 0.00000 0.00000 0.00000 0.00000 1.32170 0.00000                               F
OBISAM12 Bisamberg    0 0        0.00000 0.00000 0.00000 -0.1082 0.00000 0.00000 0.00000 -0.1082                               F
OBISAM13 Bisamberg    0 0        0.00000 0.00000 0.00000 0.00000
OBISAM21 Bisamberg    0 0        0.00000 0.00000 0.00000 -87.036 0.00000 0.00000 0.00000 -87.036                               F
OBISAM22 Bisamberg    0 0        0.00000 0.00000 0.00000 0.00000
OBISAM51 Bisamberg    0 0        0.00000 0.00000 0.00000 0.00000
OBISAM52 Bisamberg    0 0        17.6295 0.00000 -12.537 0.00000 0.00000 -12.637                                               F
OBISAM53 Bisamberg    0 0        0.00000 0.00000 0.00000 0.00000
OBISAM54 Bisamberg    0 0        0.00000 0.00000 0.00000 0.00000
OBISAM55 Bisamberg    0 0        0.00000 0.00000 0.00000 0.00000
OBISAM56 Bisamberg    0 0        0.00000 0.00000 0.00000 0.00000
OBOCKF51 Bockfliess   0 0        0.00000 0.00000 -24.000 0.00000 -24.000 -24.000                                               F
OBRAUN51 Braunau      0 0        0.00000 0.00000 -47.900 0.00000 0.00000 -48.000                                               F
OBRAUN52 Braunau      0 0        0.00000 0.00000 0.00000 0.00000
OBREDE51 Brederis     0 0        51.9565 0.00000 -17.844 0.00000 0.00000 -47.607                                               F
OBRUCK51 BruckLeitha  0 0        19.7479 0.00000 -5.3944 0.00000 0.00000 -5.4944                                               F
OBRUEC51 Brueckl      0 0        30.1587 0.00000 -5.8325 0.00000 0.00000 -20.678                                               F
OBRUEC52 Brueckl      0 0        0.00000 0.00000 0.00000 0.00000
OBRUM 51 Bruck_Mur    0 0        112.081 0.00000 -24.663 0.00000 0.00000 -30.162                                               F
OBRUM 52 Bruck_Mur    0 0        0.00000 0.00000 0.00000 0.00000
OBUVKW51 Buers_VKW    0 0        0.00000 0.00000 0.00000 0.00000
ODEUTS51 DeutschAlten 0 0        0.00000 0.00000 0.00000 0.00000
ODEUTS52 DeutschAlten 0 0        6.37731 0.00000 -17.000 0.00000 -17.000 -17.000                                               F
ODIEB 51 Diesbach_Saa 0 0        50.7703 0.00000 -2.9310 0.00000 32.0000 -64.198                                               F
ODIEB 52 Diesbach_Saa 0 0        0.00000 0.00000 0.00000 0.00000
ODONST51 Donaustadt   0 0        0.00000 0.00000 -15.332 0.00000 0.00000 -449.00                                               F
ODUERN11 Duernrohr    0 2 417.15 0.00000 0.00000 0.00000 -49.985 0.00000 0.00000                                               F
ODUERN12 Duernrohr    0 0        0.00000 0.00000 0.00000 0.00000
ODUERN13 Duernrohr    0 0        0.00000 0.00000 0.00000 0.00000
ODUERN21 Duernrohr    0 0        0.00000 75.3152 0.00000 0.00000 0.00000 0.00000 75.3152 0.00000                               F
ODUERN22 Duernrohr    0 0        0.00000 109.806 0.00000 0.00000 0.00000 0.00000 109.806 0.00000                               F
ODUERN51 Duernrohr    0 0        31.6882 0.00000 -9.0410 0.00000 0.00000 -34.526                                               F
ODUERN52 Duernrohr    0 0        0.00000 0.00000 0.00000 0.00000 0.00000 -37.000                                               F
OEBENF51 Ebenfurth    0 0        0.00000 0.00000 -0.9000 0.00000 -0.9000 -1.0000                                               F
OEBENF52 Ebenfurth    0 0        0.00000 0.00000 0.00000 0.00000
OEBREI51 Ebreichsdorf 0 0        0.00000 0.00000 -4.9000 0.00000 -4.9000 -5.0000                                               F
OEDLIN21 Edling       0 0        0.00000 2.65231 -73.596 0.00000 0.00000 -86.000 2.65231 0.00000                               F
OEFERD51 Eferding     0 0        52.6171 0.00000 -1.4505 0.00000 0.00000 -1.5505                                               F
OEGGEN51 Eggenburg    0 0        21.9524 0.00000 -0.7289 0.00000 0.00000 -5.8988                                               F
OEGGLF51 Egglfing     0 0        0.00000 0.00000 -73.190 0.00000 0.00000 -84.000                                               F
OEIBES51 Eibesbrunn   0 0        18.6581 0.00000 -19.900 0.00000 0.00000 -20.000                                               F
OEIBES52 Eibesbrunn   0 0        0.00000 0.00000 0.00000 0.00000
OEICH 51 Eichet       0 0        53.6768 0.00000 -14.956 0.00000 0.00000 -24.899                                               F
OEICH 52 Eichet       0 0        0.00000 0.00000 0.00000 0.00000
OEISEN51 Eisenstadt   0 2 113.30 43.8406 0.00000 -0.6998 27.1589 0.00000 -104.11 100.000 -100.00                               F
OENNSI51 EnnsIndustri 0 0        18.9688 0.00000 0.06646 0.00000 0.06646 -0.0335                                               F
OENZF 51 Enzesfeld    0 0        0.00000 0.00000 0.00000 0.00000
OERING51 Ering        0 0        0.00000 0.00000 -74.900 0.00000 0.00000 -75.000                                               F
OERLAU51 Erlauf       0 0        39.5792 0.00000 -5.9228 0.00000 0.00000 -39.542                                               F
OERNST11 Ernsthofen   0 0        0.00000 0.00000 0.00000 -17.660 0.00000 0.00000 0.00000 -17.660                               F
OERNST12 Ernsthofen   0 0        0.00000 0.00000 0.00000 0.00000
OERNST21 Ernsthofen   0 0        0.00000 174.412 0.00000 0.00000 0.00000 0.00000 174.413 0.00000                               F
OERNST22 Ernsthofen   0 0        0.00000 0.00000 0.00000 0.00000
OERNST23 Ernsthofen   0 2 239.99 0.00000 0.00000 0.00000 89.2828 0.00000 0.00000 300.000 -300.00                               F
OERNST2X EH-SF6       0 0        0.00000 0.00000 0.00000 0.00000
OERNST2Y EH-SF6       0 0        0.00000 0.00000 0.00000 0.00000
OERNST51 Ernsthofen   0 0        0.00000 0.00000 0.00000 0.00000
OERNST52 Ernsthofen   0 0        0.00000 0.00000 0.00000 0.00000
OERNST53 Ernsthofen   0 0        22.2828 0.00000 -5.2285 0.00000 0.00000 -63.256                                               F
OESSL 51 Essling      0 0        0.00000 0.00000 0.00000 0.00000
OESSL 52 Essling      0 0        22.6249 0.00000 -73.707 0.00000 0.00000 -78.957                                               F
OESSL 59 Essling      0 0        0.00000 0.00000 0.00000 0.00000
OETZER11 Etzersdorf   0 0        0.00000 0.00000 0.00000 -29.988 0.00000 0.00000 0.00000 -29.988                               F
OETZER12 Etzersdorf   0 0        0.00000 0.00000 0.00000 0.00000
OFEIST21 Feistritz    0 0        0.00000 11.6971 -59.914 0.00000 0.00000 -88.000 11.6971 0.00000                               F
OFEIST22 Feistritz    0 0        0.00000 0.00000 0.00000 0.00000
OFELDB51 Feldbach     0 0        61.5985 0.00000 -12.620 0.00000 0.00000 -101.37                                               F
OFELDB52 Feldbach     0 0        0.00000 0.00000 0.00000 0.00000
OFELDK51 Feldkirch    0 0        46.7001 0.00000 -32.113 0.00000 0.00000 -53.490                                               F
OFLAG 51 Flachgau     0 0        27.8018 0.00000 -2.5861 0.00000 0.00000 -16.212                                               F
OFLAG 52 Flachgau     0 0        0.00000 0.00000 0.00000 0.00000
OFRANK51 Frankenmarkt 0 0        26.4152 0.00000 -2.1837 0.00000 0.00000 -2.2837                                               F
OFRANZ51 Franzosenhau 0 0        5.60745 0.00000 0.03292 0.00000 0.03292 -0.0671                                               F
OFRAST51 Frastanz     0 0        0.00000 0.00000 0.00000 0.00000
OFREIS51 Freistadt    0 0        18.9688 0.00000 -2.2121 0.00000 0.00000 -2.3121                                               F
OFRIEN51 Friensdorf   0 0        18.9688 0.00000 -3.3912 0.00000 0.00000 -3.4912                                               F
OFRIEN52 Friensdorf   0 0        0.00000 0.00000 0.00000 0.00000
OFRIES51 Friesach     0 0        0.00000 0.00000 -10.221 0.00000 0.00000 -12.000                                               F
OFRIES52 Friesach     0 0        0.00000 0.00000 0.00000 0.00000
OFROH 51 Frohnleiten  0 0        3.82199 0.00000 -24.704 0.00000 0.00000 -28.000                                               F
OFROH 52 Frohnleiten  0 0        0.00000 0.00000 0.00000 0.00000
OGAENS51 Gaenserndorf 0 0        35.1670 0.00000 -10.185 0.00000 0.00000 -22.796                                               F
OGAENS52 Gaenserndorf 0 0        0.00000 0.00000 0.00000 0.00000
OGAILI51 Gailitz      0 0 110.00 10.8514 0.00000 0.10000 0.00000 0.10000 0.00000 0.00000 -99999.                               F
OGAILI52 Gailitz      0 0        0.00000 0.00000 0.00000 0.00000
OGARST51 Garsten      0 0        0.00000 0.00000 -28.878 0.00000 0.00000 -36.000                                               F
OGASTE51 Gasteinertal 0 0        14.8712 0.00000 -4.8275 0.00000 32.0000 -147.31                                               F
OGAWEI51 Gaweinstal   0 0        26.4327 0.00000 -177.19 0.00000 0.00000 -177.29                                               F
OGERAS51 Gerasdorf    0 0        0.00000 0.00000 -0.9000 0.00000 -0.9000 -1.0000                                               F
OGERAS52 Gerasdorf    0 0        0.00000 0.00000 0.00000 0.00000
OGERLO11 Gerlos       0 0        0.00000 0.00000 -71.551 0.00000 0.00000 -135.00                                               F
OGERST51 Gerstl       0 0        18.5400 0.00000 -6.2677 0.00000 0.00000 -36.495                                               F
OGLEIS51 Gleisdorf    0 0        50.2653 0.00000 -4.2308 0.00000 0.00000 -55.854                                               F
OGLEIS52 Gleisdorf    0 0        0.00000 0.00000 0.00000 0.00000
OGMUND51 Gmunden      0 0        51.3610 0.00000 -10.529 0.00000 0.00000 -27.087                                               F
OGOEM 51 Goeming      0 0        0.00000 0.00000 0.00000 0.00000
OGOEM 52 Goeming      0 0        14.8642 0.00000 -1.3793 0.00000 0.00000 -25.508                                               F
OGOLL 51 Golling      0 0        0.00000 0.00000 0.00000 0.00000
OGOLL 52 Golling      0 0        12.2768 0.00000 -6.9915 0.00000 0.00000 -33.258                                               F
OGRAMB51 Grambach     0 0        130.648 0.00000 -0.1723 0.00000 0.00000 -13.050                                               F
OGRAMB52 Grambach     0 0        0.00000 0.00000 0.00000 0.00000
OGRAZN51 Graz_Nord    0 0        56.5854 0.00000 -14.310 0.00000 0.00000 -25.235                                               F
OGRAZN52 Graz_Nord    0 0        0.00000 0.00000 0.00000 0.00000
OGRAZS51 Graz_Sued    0 0        0.00000 0.00000 -31.686 0.00000 0.00000 -45.797                                               F
OGRAZS52 Graz_Sued    0 0        71.4755 0.00000 0.00000 0.00000
OGREST51 Gresten      0 0        19.4752 0.00000 -11.532 0.00000 0.00000 -34.108                                               F
OGREST52 Gresten      0 0        0.00000 0.00000 0.00000 0.00000
OGREUT21 Greuth       0 0        0.00000 0.00000 0.00000 0.00000
OGREUT41 Greuth       0 0        0.00000 0.00000 0.00000 0.00000
OGREUT49 Greuth       0 0        0.00000 0.00000 0.00000 0.00000
OGRFST21 Greifenstein 0 0        0.00000 19.5874 -179.05 0.00000 0.00000 -222.00 19.5874 0.00000                               F
OGRFST22 Greifenstein 0 0        0.00000 0.00000 -89.569 0.00000 0.00000 -111.00                                               F
OGRIK 51 Grieskirchen 0 0        38.2214 0.00000 -4.3596 0.00000 0.00000 -5.4788                                               F
OGROSS51 Grossraming  0 0        0.00000 0.00000 -25.726 0.00000 0.00000 -35.000                                               F
OGROSS52 Grossraming  0 0        0.00000 0.00000 -65.677 0.00000 0.00000 -84.000                                               F
OGUNDE51 Gundertshaus 0 0        8.56464 0.00000 -1.4597 0.00000 0.00000 -1.6155                                               F
OHADER51 Hadersdorf   0 0        8.95644 0.00000 -6.9414 0.00000 0.00000 -7.0414                                               F
OHAEUS21 Haeusling    0 0        0.00000 0.00000 0.00000 0.00000 420.000 -360.00                                               F
OHARTB51 Hartberg     0 0        51.8861 0.00000 -14.024 0.00000 0.00000 -68.359                                               F
OHAUSR21 Hausruck     0 0        0.00000 0.00000 0.00000 -14.390 0.00000 0.00000 0.00000 -14.390                               F
OHAUSR22 Hausruck     0 0        0.00000 0.00000 0.00000 0.00000
OHAUSR51 Hausruck     0 0        13.9747 0.00000 -9.9090 0.00000 0.00000 -30.366                                               F
OHAUSR52 Hausruck     0 0        0.00000 0.00000 0.00000 0.00000
OHAUSR53 Hausruck     0 0        0.00000 0.00000 0.00000 0.00000
OHAUSR59 Hausruck     0 0        0.00000 0.00000 0.00000 0.00000
OHESSE21 Hessenberg   0 0        0.00000 0.00000 0.00000 -6.9676 0.00000 0.00000 0.00000 -6.9676                               F
OHESSE22 Hessenberg   0 0        0.00000 0.00000 0.00000 0.00000
OHESSE51 Hessenberg   0 0        67.9502 0.00000 -24.708 0.00000 0.00000 -43.218                                               F
OHESSE52 Hessenberg   0 0        0.00000 0.00000 0.00000 0.00000
OHIEF 51 Hieflau      0 0        17.5213 0.00000 -94.849 0.00000 8.00000 -121.93                                               F
OHIEF 52 Hieflau      0 0        0.00000 0.00000 0.00000 0.00000
OHIMU 51 Hintermuhr   0 0        38.4127 0.00000 0.00000 0.00000 70.0000 -112.00                                               F
OHOEFL51 Hoeflein     0 0        0.00000 0.00000 -59.557 0.00000 0.00000 -59.657                                               F
OHOERS51 Hoersching   0 0        0.00000 0.00000 0.00000 0.00000
OHOERS52 Hoersching   0 0        0.00000 0.00000 0.00000 0.00000
OHOF  51 Hof          0 0        9.68934 0.00000 -2.2838 0.00000 0.00000 -2.4440                                               F
OHOHEM51 Hohenems     0 0        34.3511 0.00000 0.00000 0.00000 0.00000 -9.1047                                               F
OHOHEW51 HoheWand     0 0        100.064 0.00000 -0.0861 0.00000 0.00000 -21.735                                               F
OHOLLA51 Hollabrunn   0 0        24.2265 0.00000 -1.7613 0.00000 0.00000 -10.872                                               F
OHOLLA52 Hollabrunn   0 0        0.00000 0.00000 0.00000 0.00000
OHORN 51 Horn         0 0        19.0259 0.00000 -1.9193 0.00000 0.00000 -27.567                                               F
OHORN 52 Horn         0 0        0.00000 0.00000 0.00000 0.00000
OHULI 51 HuetteSued   0 0        109.329 0.00000 -113.45 0.00000 0.00000 -365.00                                               F
OIMST 51 Imst         0 0        54.6938 0.00000 -142.60 0.00000 0.00000 -153.78                                               F
OIMST 52 Imst         0 0        0.00000 0.00000 0.00000 0.00000
OINNSB51 Innsbruck    0 0        70.7026 0.00000 -26.428 0.00000 0.00000 -28.000                                               F
OINNSB52 Innsbruck    0 0        0.00000 0.00000 0.00000 0.00000
OJENBA51 Jenbach      0 0        31.7768 0.00000 -17.683 0.00000 0.00000 -50.473                                               F
OJENBA52 Jenbach      0 0        0.00000 0.00000 -6.3424 0.00000 0.00000 -66.000                                               F
OJOCHE21 Jochenstein  0 0        0.00000 0.00000 -85.037 -7.2683 0.00000 -90.000 0.00000 -7.2683                               F
OJOCHE22 Jochenstein  0 0        0.00000 0.00000 -28.374 0.00000 0.00000 -60.000                                               F
OJOCHE51 Jochenstein  0 0        0.00000 0.00000 0.00000 0.00000
OJOCHE59 Jochenstein  0 0        0.00000 0.00000 0.00000 0.00000
OKAGRA51 Kagran       0 0        0.00000 0.00000 -0.9000 0.00000 -0.9000 -1.0000                                               F
OKAINA11 Kainachtal   0 0        0.00000 135.077 0.00000 0.00000 0.00000 0.00000 135.077 0.00000                               F
OKAINA12 Kainachtal   0 2 417.95 0.00000 0.00000 0.00000 -209.03 0.00000 0.00000 400.000 -400.00                               F
OKAINA51 Kainachtal   0 0        26.4954 0.00000 -23.503 0.00000 0.00000 -41.045                                               F
OKAINA52 Kainachtal   0 0        0.00000 0.00000 0.00000 0.00000
OKAISE51 KaiserEbersd 0 0        84.5412 0.00000 -86.637 0.00000 0.00000 -96.000                                               F
OKAISE52 KaiserEbersd 0 0        0.00000 0.00000 -86.293 0.00000 0.00000 -96.000                                               F
OKAMER51 Kamering     0 0        36.2115 0.00000 -38.903 0.00000 0.00000 -63.003                                               F
OKAMER52 Kamering     0 0        0.00000 0.00000 0.00000 0.00000
OKAPFB51 Kapfenberg   0 0        38.9580 0.00000 -7.8279 0.00000 0.00000 -10.710                                               F
OKAPRU11 Kaprun_Haupt 0 0        0.00000 39.6371 -145.27 0.00000 0.00000 -170.00 39.6371 0.00000                               F
OKAPRU12 Kaprun_Haupt 0 0        0.00000 5.62041 0.00000 0.00000 0.00000 0.00000 5.62041 0.00000                               F
OKAPRU51 Kaprun_Haupt 0 0        0.00000 0.00000 -128.00 0.00000 160.000 -230.00                                               F
OKAPRU52 Kaprun_Haupt 0 0        0.00000 0.00000 0.00000 0.00000
OKATZB51 Katzbach     0 0        9.00064 0.00000 -0.2453 0.00000 0.00000 -0.3453                                               F
OKENDL11 Kendlerstras 0 0        0.00000 0.00000 0.00000 0.00000
OKENDL12 Kendlerstras 0 0        0.00000 0.00000 0.00000 0.00000
OKENDL51 Kendlerstras 0 0        0.00000 0.00000 0.00000 0.00000
OKENDL52 Kendlerstras 0 0        0.00000 0.00000 0.00000 0.00000
OKINDB51 Kindberg     0 0        9.40501 0.00000 -2.6820 0.00000 0.00000 -3.1850                                               F
OKLAGE51 Klagenfurt   0 0        69.2302 0.00000 -71.499 0.00000 0.00000 -110.03                                               F
OKLAGE52 Klagenfurt   0 0        0.00000 0.00000 0.00000 0.00000
OKLAUS21 Klaus        0 0        7.20145 8.07050 -15.761 0.00000 0.00000 -29.030 8.07050 0.00000                               F
OKLAUS29 Klaus        0 0        0.00000 3.52950 0.00000 0.00000 0.00000 0.00000 3.52950 0.00000                               F
OKLEDE21 Kledering    0 0        0.00000 0.00000 -1.7241 -1.4221 82.0000 -4.0000 0.00000 -1.4221                               F
OKLEIN51 Kleinmuenche 0 0 110.00 10.2143 0.00000 0.10000 0.00000 0.10000 0.00000 0.00000 -99999.                               F
OKLEIN52 Kleinmuenche 0 0        0.00000 0.00000 0.00000 0.00000
OKORNE51 Korneuburg   0 0        0.00000 0.00000 0.00000 0.00000 0.00000 -150.00                                               F
OKORNE52 Korneuburg   0 0        0.00000 0.00000 0.00000 0.00000
OKREMM51 Kremsmuenste 0 0        0.00000 0.00000 0.00000 0.00000
OKREMM52 Kremsmuenste 0 0        0.00000 0.00000 0.00000 0.00000
OKRONS11 Kronstorf    0 0        0.00000 0.00000 0.00000 0.00000
OKRONS12 Kronstorf    0 0        0.00000 0.00000 0.00000 0.00000
OKROW 51 Kronstorf_We 0 0        0.00000 0.00000 0.00000 0.00000
OKUFST51 Kufstein     0 0        25.5088 0.00000 -28.902 0.00000 0.00000 -55.174                                               F
OKUFST52 Kufstein     0 0        0.00000 0.00000 0.00000 0.00000
OKWDUR11 KW Duernrohr 0 0        0.00000 34.3102 0.00000 0.00000 0.00000 -332.00 34.3102 0.00000                               F
OLAA  51 LaaThaya     0 0        13.0596 0.00000 -63.900 0.00000 0.00000 -64.000                                               F
OLAAKI51 Laakirchen   0 0        47.2772 0.00000 -0.9543 0.00000 0.00000 -61.682                                               F
OLANDS51 Landskron    0 0        26.1515 0.00000 -12.558 0.00000 0.00000 -51.492                                               F
OLANDS52 Landskron    0 0        0.00000 0.00000 0.00000 0.00000
OLASDO51 Lassendorf   0 0        20.1597 0.00000 -45.381 0.00000 5.00000 -68.000                                               F
OLASSE51 Lassee       0 0        8.78352 0.00000 -0.2585 0.00000 0.00000 -6.9300                                               F
OLAUF 51 Laufnitzdorf 0 0        3.82199 0.00000 -24.768 0.00000 0.00000 -53.233                                               F
OLAUF 52 Laufnitzdorf 0 0        0.00000 0.00000 0.00000 0.00000
OLEIBN51 Leibnitz     0 0        0.00000 0.00000 -63.387 0.00000 0.00000 -80.000                                               F
OLEIBN52 Leibnitz     0 0        0.00000 0.00000 0.00000 0.00000
OLENGA51 Lengau       0 0        6.43264 0.00000 -2.1597 0.00000 0.00000 -2.1597                                               F
OLENZI51 Lenzing      0 0        86.6749 0.00000 -75.043 0.00000 0.00000 -75.043                                               F
OLEOND51 Leonding     0 0 110.00 9.27923 0.00000 0.10000 0.00000 0.10000 0.00000 0.00000 -99999.                               F
OLEOPO51 Leopoldau    0 0        107.157 0.00000 0.00000 0.00000 0.00000 -147.00                                               F
OLEOPO52 Leopoldau    0 0        0.00000 0.00000 0.00000 0.00000
OLIENN11 Lienz        0 0        0.00000 0.00000 0.00000 -13.277 0.00000 0.00000 0.00000 -13.277                               F
OLIENN12 Lienz        0 0        0.00000 13.2770 0.00000 0.00000 0.00000 0.00000 13.2770 0.00000                               F
OLIENN21 Lienz        0 0        0.00000 296.303 0.00000 0.00000 0.00000 0.00000 296.304 0.00000                               F
OLIENN22 Lienz        0 0        0.00000 0.00000 0.00000 0.00000
OLIENN23 Lienz        0 0        0.00000 0.00000 0.00000 0.00000
OLIENN51 Lienz        0 0        0.00000 0.00000 0.00000 0.00000
OLIENN52 Lienz        0 0        28.7779 0.00000 -72.479 0.00000 0.00000 -129.68                                               F
OLIESE51 Lieserhofen  0 0        32.3982 0.00000 -4.3242 0.00000 0.00000 -10.635                                               F
OLIESE52 Lieserhofen  0 0        0.00000 0.00000 0.00000 0.00000
OLIESI51 Liesing      0 0        53.7210 0.00000 0.00000 0.00000
OLIEZ 51 Liezen       0 0        103.163 0.00000 -174.20 0.00000 0.00000 -270.00                                               F
OLIMBG11 Limberg_II   0 0        0.00000 0.00000 0.00000 0.00000 480.000 -480.00                                               F
OLINZC51 LinzCity     0 0 110.00 20.1209 0.00000 0.10000 0.00000 0.10000 0.00000 0.00000 -99999.                               F
OLINZI51 LinzIndustri 0 0 110.00 11.7654 0.00000 0.10000 0.00000 0.10000 0.00000 0.00000 -99999.                               F
OLINZM51 LinzMitte    0 0        26.8558 0.00000 -11.732 0.00000 0.00000 -231.75                                               F
OLINZM52 LinzMitte    0 0        0.00000 0.00000 0.00000 0.00000
OLINZN51 LinzNord     0 0        20.1209 0.00000 -1.4157 0.00000 0.00000 -1.5157                                               F
OLINZN52 LinzNord     0 0        0.00000 0.00000 0.00000 0.00000
OLINZO51 LinzOst      0 0        25.0106 0.00000 0.00000 0.00000
OLINZS51 LinzSued     0 0        11.6017 0.00000 -28.902 0.00000 0.00000 -165.33                                               F
OLINZZ51 LinzZentrum  0 0        25.7961 0.00000 -0.5295 0.00000 0.00000 -0.6295                                               F
OLINZZ52 LinzZentrum  0 0        0.00000 0.00000 0.00000 0.00000
OLOOSD51 Loosdorf     0 0 110.00 14.7776 0.00000 0.10000 0.00000 0.10000 0.00000 0.00000 -99999.                               F
OLOSEN51 Losenstein   0 0        0.00000 0.00000 -32.795 0.00000 0.00000 -40.000                                               F
OLUGA 51 Lungau       0 0        23.9770 0.00000 -24.752 0.00000 0.00000 -86.186                                               F
OLUGA 52 Lungau       0 0        0.00000 0.00000 0.00000 0.00000
OMALTA21 MaltaHauptst 0 2 238.20 0.00000 0.00000 -328.61 -5.0823 200.000 -549.00 500.000 -500.00                               F
OMALTA22 MaltaHauptst 0 0        0.00000 0.00000 -75.065 -31.006 200.000 -183.00 0.00000 -31.006                               F
OMALTA51 MaltaHauptst 0 0        0.00000 0.00000 0.00000 0.00000 138.000 -128.00                                               F
OMALTA52 MaltaHauptst 0 0        0.00000 0.00000 0.00000 0.00000
OMARCH51 Marchtrenk   0 0        22.2112 0.00000 -30.518 0.00000 0.00000 -66.672                                               F
OMATTE51 Mattersburg  0 0        21.8164 29.0000 -9.8030 0.00000 0.00000 -52.076 29.0000 0.00000                               F
OMATTI51 Mattighofen  0 0        33.8117 0.00000 -2.8627 0.00000 0.00000 -2.9627                                               F
OMAU  51 MaltaUnterst 0 0        0.00000 0.00000 -25.134 0.00000 0.00000 -40.000                                               F
OMAUTH51 Mauthausen   0 0        18.9688 0.00000 -7.8854 0.00000 0.00000 -11.098                                               F
OMAYRH21 Mayrhofen    0 2 242.51 0.00000 61.7701 0.00000 -47.752 0.00000 0.00000 300.000 -300.00                               F
OMAYRH22 Mayrhofen    0 0        0.00000 0.00000 -287.78 -8.9290 0.00000 -368.00 0.00000 -8.9290                               F
OMELLA11 Mellach      0 0        0.00000 0.00000 0.00000 -0.8997 0.00000 -410.00 0.00000 -0.8997                               F
OMELLA12 Mellach      0 0        0.00000 0.00000 0.00000 0.00000 0.00000 -410.00                                               F
OMITTD51 Mitterdorf   0 0        38.9580 0.00000 -11.134 0.00000 0.00000 -19.865                                               F
OMITTD52 Mitterdorf   0 0        0.00000 0.00000 0.00000 0.00000
OMOOSB51 Moosbrunn    0 0        12.8088 0.00000 -3.9000 0.00000 -3.9000 -4.0000                                               F
OMUEHL51 Muehlrading  0 0        0.00000 0.00000 -21.564 0.00000 0.00000 -28.000                                               F
OMUERZ51 Muerzzuschla 0 0        29.8913 0.00000 -29.313 0.00000 0.00000 -29.413                                               F
OMUERZ52 Muerzzuschla 0 0        0.00000 0.00000 0.00000 0.00000
ONAUDE11 Nauders      0 2 414.86 0.00000 0.00000 0.00000 62.7803 0.00000 0.00000 200.000 -200.00                               F
ONAUDE12 Nauders      0 0        0.00000 0.00000 0.00000 0.00000
ONAUDE21 Nauders      0 0        0.00000 0.00000 0.00000 -15.715 0.00000 0.00000 0.00000 -15.715                               F
ONAUDE22 Nauders      0 0        0.00000 112.991 0.00000 0.00000 0.00000 0.00000 112.991 0.00000                               F
ONENZI51 Nenzing      0 0        0.00000 0.00000 0.00000 0.00000
ONEUSI21 NeusiedlSee  0 0        0.00000 0.00000 0.00000 0.00000
ONEUSI22 NeusiedlSee  0 0        0.00000 0.00000 0.00000 0.00000
ONEUSI51 NeusiedlSee  0 0        42.7602 17.4028 -42.154 0.00000 0.00000 -114.30 17.4028 0.00000                               F
ONEUSI52 NeusiedlSee  0 0        0.00000 17.4028 -51.000 0.00000 -51.000 -51.000 17.4028 0.00000                               F
OOBAL 51 Oberalm      0 0        17.4518 0.00000 -37.453 0.00000 0.00000 -114.16                                               F
OOBAL 52 Oberalm      0 0        0.00000 0.00000 0.00000 0.00000
OOBERA52 Oberaudorf   0 0        0.00000 0.00000 0.00000 0.00000
OOBERD51 Oberdrauburg 0 0        9.79511 0.00000 -6.9616 0.00000 0.00000 -17.457                                               F
OOBERS11 Obersielach  0 0        0.00000 0.00000 0.00000 -11.654 0.00000 0.00000 0.00000 -11.654                               F
OOBERS12 Obersielach  0 0        0.00000 0.00000 0.00000 0.00000
OOBERS21 Obersielach  0 0        0.00000 274.461 0.00000 0.00000 0.00000 0.00000 274.461 0.00000                               F
OOBERS22 Obersielach  0 2 236.87 0.00000 0.00000 0.00000 -56.408 0.00000 0.00000 300.000 -300.00                               F
OOBERS51 Obersielach  0 0        14.1215 0.00000 -5.1243 0.00000 0.00000 -14.917                                               F
OOBERS52 Obersielach  0 0        0.00000 0.00000 0.00000 0.00000
OOETZ 51 Oetztal      0 0        45.7043 0.00000 -33.992 0.00000 0.00000 -47.710                                               F
OOETZ 52 Oetztal      0 0        0.00000 0.00000 0.00000 0.00000
OOHLSD51 Ohlsdorf     0 0        0.00000 0.00000 -0.5665 0.00000 0.00000 -0.6746                                               F
OOSTST11 Oststeiermar 0 0        0.00000 7.51249 0.00000 0.00000 0.00000 0.00000 7.51249 0.00000                               F
OOSTST12 Oststeiermar 0 0        0.00000 0.00000 0.00000 0.00000
OOSTST51 Oststeiermar 0 0        0.00000 0.00000 0.00000 0.00000
OOSTST52 Oststeiermar 0 0        0.00000 0.00000 0.00000 0.00000
OOTH  51 Ottensheim   0 0        0.00000 0.00000 -182.39 0.00000 0.00000 -207.00                                               F
OOTH  52 Ottensheim   0 0        0.00000 0.00000 0.00000 0.00000
OOTTEN51 Ottenstein   0 0        14.3981 0.00000 -5.2654 0.00000 0.00000 -60.709                                               F
OOTTEN52 Ottenstein   0 0        19.6988 0.00000 0.00000 0.00000 29.0000 0.00000                                               F
OPARTE51 Partenstein  0 0        18.1469 0.00000 -21.038 0.00000 0.00000 -48.825                                               F
OPASSA51 Passau       0 0        0.00000 0.00000 0.00000 0.00000
OPEIGA51 Peigarten    0 0        0.00000 0.00000 0.00000 0.00000
OPERNH51 Pernhofen    0 0        54.1718 0.00000 0.00000 0.00000
OPERNH52 Pernhofen    0 0        0.00000 0.00000 0.00000 0.00000
OPETER11 StPeter      0 2 416.40 0.00000 13.2899 0.00000 251.358 0.00000 0.00000 350.000 -350.00                               F
OPETER13 StPeter      0 0        0.00000 0.00000 0.00000 0.00000
OPETER21 StPeter      0 0        0.00000 173.155 0.00000 0.00000 0.00000 0.00000 173.155 0.00000                               F
OPETER22 StPeter      0 0        0.00000 0.00000 0.00000 0.00000
OPETER23 StPeter      0 0        0.00000 0.00000 0.00000 0.00000
OPETER51 StPeter      0 0 110.00 22.1047 0.00000 0.10000 0.00000 0.10000 0.00000 0.00000 -99999.                               F
OPETER52 StPeter      0 0        0.00000 0.00000 0.00000 0.00000
OPETRO51 Petronell    0 0 110.00 7.81067 0.00000 0.10000 0.00000 0.10000 0.00000 0.00000 -99999.                               F
OPETRO52 Petronell    0 0        0.00000 0.00000 -58.900 0.00000 -58.900 -59.000                                               F
OPFAND51 Pfandl       0 0        16.3952 0.00000 -0.4448 0.00000 0.00000 -0.5448                                               F
OPICHL51 Pichling     0 0        0.00000 0.00000 0.00000 0.00000
OPICHL52 Pichling     0 0        0.00000 0.00000 0.00000 0.00000
OPINZ 51 Pinzgau      0 0        79.3031 0.00000 -87.993 0.00000 0.00000 -160.28                                               F
OPINZ 52 Pinzgau      0 0        0.00000 0.00000 0.00000 0.00000
OPOCKI51 Pocking      0 0 110.00 49.1851 0.00000 0.10000 0.00000 0.10000 0.00000 0.00000 -99999.                               F
OPODO 51 Pottendorf   0 0        0.00000 0.00000 -10.900 0.00000 -10.900 -11.000                                               F
OPONG 51 Pongau       0 0        16.9611 0.00000 -41.557 0.00000 0.00000 -117.41                                               F
OPONG 52 Pongau       0 0        16.9611 0.00000 -62.068 0.00000 0.00000 -82.903                                               F
OPOTT 51 Pottenstein  0 0        0.00000 0.00000 0.00000 0.00000
OPOTT 52 Pottenstein  0 0        0.00000 0.00000 0.00000 0.00000
OPOTTE11 Pottenbrunn  0 0        0.00000 0.00000 0.00000 0.00000
OPOTTE51 Pottenbrunn  0 0        0.00000 0.00000 0.00000 0.00000
OPOTTE52 Pottenbrunn  0 0        53.4732 0.00000 -9.2407 0.00000 0.00000 -34.945                                               F
OPOTTE59 Pottenbrunn  0 0        0.00000 0.00000 0.00000 0.00000
OPROTT51 Prottes      0 0        0.00000 0.00000 -30.900 0.00000 -30.900 -31.000                                               F
OPUCHB51 Puchberg     0 0        29.2477 0.00000 -1.8208 0.00000 0.00000 -1.9208                                               F
OPUCHB52 Puchberg     0 0        0.00000 0.00000 0.00000 0.00000
OPYHRN21 Pyhrn        0 0        3.60072 0.00000 -3.2504 -4.2766 0.00000 -3.8700 0.00000 -4.2766                               F
ORAAB 51 Raab         0 0        0.00000 0.00000 0.00000 0.00000
ORADEN51 Radenthein   0 0        17.4947 0.00000 -4.4835 0.00000 0.00000 -6.9090                                               F
ORADEN52 Radenthein   0 0        0.00000 0.00000 0.00000 0.00000
ORANNA51 Ranna        0 0        22.2345 0.00000 -12.876 0.00000 17.0000 -26.206                                               F
ORANNA52 Ranna        0 0        0.00000 0.00000 0.00000 0.00000
ORANSH51 Ranshofen    0 0        46.8074 0.00000 0.00000 0.00000
ORAUZ 51 Rauz         0 0        0.00000 0.00000 0.00000 0.00000
OREGAU51 Regau        0 0        13.7099 0.00000 -1.8689 0.00000 0.00000 -2.1096                                               F
OREISS21 KW Reisseck2 0 0        0.00000 2.29155 -72.931 0.00000 430.000 -430.00 2.29155 0.00000                               F
OREISS51 ReisseckKreu 0 0        0.00000 0.00000 -32.203 0.00000 71.0000 -143.00                                               F
OREISS52 ReisseckKreu 0 0        0.00000 0.00000 0.00000 0.00000
OREITD51 Reitdorf     0 0 110.00 27.9861 0.00000 0.10000 0.00000 0.10000 0.00000 0.00000 -99999.                               F
ORIED 51 Ried         0 0        51.4873 0.00000 -3.5495 0.00000 0.00000 -3.6495                                               F
ORIED 52 Ried         0 0        0.00000 0.00000 0.00000 0.00000
ORIEDB51 Riedersbach  0 0        13.3511 0.00000 -0.5708 0.00000 0.00000 -0.6708                                               F
ORIEDE51 Rieden       0 0        91.6635 0.00000 -7.1589 0.00000 0.00000 -41.258                                               F
OROHRB51 Rohrbach     0 0        37.5782 0.00000 -12.530 0.00000 0.00000 -13.702                                               F
OROSEG21 Rosegg       0 0        0.00000 18.4698 -62.389 0.00000 0.00000 -82.000 18.4698 0.00000                               F
OROSEN51 Rosenau      0 0        0.00000 0.00000 -28.620 0.00000 0.00000 -34.000                                               F
OROSSB51 Rossbach     0 0        23.8023 0.00000 -7.0466 0.00000 0.00000 -8.5667                                               F
OROSSH21 Rosshag      0 0        0.00000 0.00000 0.00000 0.00000 130.000 -116.00                                               F
OROSSH22 Rosshag      0 0        0.00000 0.00000 0.00000 0.00000 130.000 -116.00                                               F
OSALZA21 Salzach      0 0        0.00000 0.00000 0.00000 -72.148 0.00000 0.00000 0.00000 -72.148                               F
OSALZA22 Salzach      0 0        0.00000 0.00000 0.00000 0.00000
OSALZA51 Salzach      0 0        115.776 0.00000 -36.864 0.00000 0.00000 -157.20                                               F
OSALZA52 Salzach      0 0        0.00000 0.00000 0.00000 0.00000
OSALZB21 Salzburg     0 0        0.00000 0.00000 0.00000 0.00000
OSALZB22 Salzburg     0 0        0.00000 0.00000 0.00000 0.00000
OSARA 11 Sarasdorf    0 0        0.00000 48.9023 0.00000 0.00000 0.00000 0.00000 48.9023 0.00000                               F
OSARA 12 Sarasdorf    0 0        0.00000 0.00000 0.00000 0.00000
OSARA 51 Sarasdorf    0 0        0.00000 0.00000 -58.000 0.00000 -58.000 -58.000                                               F
OSARA 52 Sarasdorf    0 0        0.00000 0.00000 0.00000 0.00000
OSATTL21 Sattledt     0 0        5.76116 0.00000 0.10000 -3.6081 0.10000 0.00000 0.00000 -3.6081                               F
OSCHAE21 Schaerding   0 0        0.00000 10.1412 -47.105 0.00000 0.00000 -48.000 10.1412 0.00000                               F
OSCHAE22 Schaerding   0 0        0.00000 0.00000 -47.105 0.00000 0.00000 -48.000                                               F
OSCHAR51 Scharndorf   0 0        0.00000 0.00000 -10.900 0.00000 -10.900 -11.000                                               F
OSCHME51 Schmelz      0 0        110.104 0.00000 0.00000 0.00000
OSCHOE51 Schoenkirche 0 0        0.00000 0.00000 0.00000 0.00000
OSCHWA11 Schwarzenbac 0 0        0.00000 43.5277 -30.787 0.00000 40.0000 -45.000 43.5277 0.00000                               F
OSIMME11 Simmering    0 0        0.00000 95.9106 0.00000 0.00000 0.00000 -894.00 95.9106 0.00000                               F
OSIMME12 Simmering    0 0        0.00000 0.00000 0.00000 0.00000 0.00000 -274.00                                               F
OSIMME13 Simmering    0 0        0.00000 0.00000 0.00000 0.00000
OSIMME14 Simmering    0 0        0.00000 0.00000 0.00000 0.00000
OSIMME51 Simmering    0 0        0.00000 0.00000 0.00000 0.00000 0.00000 -85.000                                               F
OSIMME52 Simmering    0 0        0.00000 0.00000 0.00000 0.00000
OSIMME53 Simmering    0 0        0.00000 0.00000 0.00000 0.00000
OSIMME55 Simmering    0 0        0.00000 0.00000 -21.976 0.00000 0.00000 -102.00                                               F
OSPANN51 Spannberg    0 0        0.00000 0.00000 -56.900 0.00000 -56.900 -57.000                                               F
OSPANN52 Spannberg    0 0        0.00000 0.00000 -78.000 0.00000 -78.000 -78.000                                               F
OSPITT51 Spittal      0 0        13.6991 0.00000 -2.6843 0.00000 0.00000 -9.1670                                               F
OSTADL51 Stadlau      0 0        107.157 0.00000 0.00000 0.00000
OSTADL52 Stadlau      0 0        0.00000 0.00000 0.00000 0.00000
OSTAND51 StAndrae     0 0        12.0394 0.00000 -9.4940 0.00000 0.00000 -9.5940                                               F
OSTAND52 StAndrae     0 0        0.00000 0.00000 0.00000 0.00000
OSTANI51 Staning      0 0        0.00000 0.00000 -37.574 0.00000 0.00000 -45.000                                               F
OSTEEG51 Steeg        0 0        19.1430 0.00000 -2.4877 0.00000 0.00000 -2.5877                                               F
OSTEIK51 Steinkogl    0 0        39.9922 0.00000 -4.0604 0.00000 0.00000 -8.9182                                               F
OSTEIN51 Steinfeld    0 0        12.1700 0.00000 -11.313 0.00000 0.00000 -23.601                                               F
OSTEYF51 SteyrFischhu 0 0        69.8339 0.00000 -18.569 0.00000 0.00000 -18.669                                               F
OSTEYM51 Steyrermuehl 0 0        0.00000 0.00000 -2.7785 0.00000 0.00000 -49.350                                               F
OSTEYM52 Steyrermuehl 0 0        0.00000 0.00000 -2.6723 0.00000 0.00000 -18.000                                               F
OSTEYM53 Steyrermuehl 0 0        0.00000 0.00000 0.00000 0.00000 57.0000 0.00000                                               F
OSTEYN51 SteyrNord    0 0 110.00 88.8027 0.00000 0.10000 0.00000 0.10000 0.00000 0.00000 -99999.                               F
OSTJAK51 StJakob      0 0 110.00 16.2114 0.00000 0.10000 0.00000 0.10000 0.00000 0.00000 -99999.                               F
OSTJAK52 StJakob      0 0        0.00000 0.00000 0.00000 0.00000
OSTLEO51 StLeonhard   0 0        8.86337 0.00000 -8.1028 0.00000 0.00000 -10.460                                               F
OSTMAR51 StMartin     0 0        21.4015 0.00000 -16.354 0.00000 0.00000 -57.014                                               F
OSTMIC51 StMichael    0 0        26.6060 0.00000 -2.7586 0.00000 72.0000 -34.000                                               F
OSTMIC52 StMichael    0 0        0.00000 0.00000 0.00000 0.00000
OSTOCK51 Stockerau    0 0        17.6112 0.00000 -2.0251 0.00000 0.00000 -10.825                                               F
OSTOCK52 Stockerau    0 0        0.00000 0.00000 0.00000 0.00000
OSTPAN51 StPantaleon  0 0        0.00000 0.00000 -33.803 0.00000 0.00000 -38.325                                               F
OSTRAT51 Stratzdorf   0 0        58.4361 0.00000 -2.0470 0.00000 0.00000 -384.75                                               F
OSTRAT52 Stratzdorf   0 0        0.00000 0.00000 0.00000 0.00000
OSTROB51 Strobl       0 0        13.0562 0.00000 -7.6815 0.00000 0.00000 -21.974                                               F
OSTVEI51 StVeit       0 0        52.1056 0.00000 -16.253 0.00000 0.00000 -48.903                                               F
OSTVEI52 StVeit       0 0        0.00000 0.00000 0.00000 0.00000
OSUEDB11 Suedburgenla 0 0        0.00000 7.64701 0.00000 0.00000 0.00000 0.00000 7.64701 0.00000                               F
OSUEDB12 Suedburgenla 0 0        0.00000 0.00000 0.00000 0.00000
OSUEDB51 Suedburgenla 0 0        53.9801 0.00000 -0.7914 0.00000 0.00000 -194.25                                               F
OSWA  51 Schwabeck    0 0        0.00000 0.00000 -70.529 0.00000 0.00000 -81.000                                               F
OSWA  52 Schwabeck    0 0        0.00000 0.00000 -62.450 0.00000 37.0000 -80.000                                               F
OSZA  51 Schwarzach   0 0        0.00000 0.00000 -73.190 0.00000 0.00000 -136.00                                               F
OSZA  52 Schwarzach   0 0        0.00000 0.00000 -37.327 0.00000 0.00000 -60.000                                               F
OTAUER11 Tauern       0 0        0.00000 0.00000 0.00000 -8.7194 0.00000 0.00000 0.00000 -8.7194                               F
OTAUER12 Tauern       0 0        0.00000 0.00000 0.00000 0.00000
OTAUER13 Tauern       0 0        0.00000 0.00000 0.00000 0.00000
OTAUER21 Tauern       0 0        0.00000 0.00000 0.00000 0.00000
OTAUER22 Tauern       0 0        0.00000 108.488 0.00000 0.00000 0.00000 0.00000 108.488 0.00000                               F
OTERNB51 Ternberg     0 0        0.00000 0.00000 -34.840 0.00000 0.00000 -42.000                                               F
OTERNI21 Ternitz      0 0        0.00000 14.2663 0.00000 0.00000 0.00000 0.00000 14.2663 0.00000                               F
OTERNI22 Ternitz      0 0        0.00000 0.00000 0.00000 0.00000
OTERNI51 Ternitz      0 0        59.1715 0.00000 -4.7444 0.00000 0.00000 -24.866                                               F
OTERNI52 Ternitz      0 0        0.00000 0.00000 -2.2211 0.00000 0.00000 -21.214                                               F
OTERNI53 Ternitz      0 0        0.00000 0.00000 0.00000 0.00000
OTHEIS11 Theiss       0 0        0.00000 0.00000 0.00000 0.00000
OTHEIS51 Theiss       0 0        0.00000 0.00000 0.00000 0.00000 0.00000 -140.00                                               F
OTHEIS52 Theiss       0 0        0.00000 0.00000 0.00000 0.00000 0.00000 -255.00                                               F
OTHEIS59 Theiss       0 0        0.00000 0.00000 0.00000 0.00000
OTILLY51 Tillysburg   0 0        14.7527 0.00000 -0.1129 0.00000 0.00000 -0.2129                                               F
OTIMEL51 Timelkam     0 0        44.9529 0.00000 -43.886 0.00000 0.00000 -480.39                                               F
OTIMEL52 Timelkam     0 0        39.3977 0.00000 0.00000 0.00000 120.000 0.00000                                               F
OTRAIS51 Traisen      0 0        0.00000 0.00000 0.00000 0.00000
OTRAIS52 Traisen      0 0        36.3250 0.00000 -4.7733 0.00000 0.00000 -22.099                                               F
OTRAUN51 Traunfall    0 0        25.7612 0.00000 -11.501 0.00000 0.00000 -25.410                                               F
OTRAUN52 Traunfall    0 0        0.00000 0.00000 0.00000 0.00000
OTRAUP51 TraunPucking 0 0        55.6045 0.00000 -49.911 0.00000 0.00000 -50.011                                               F
OTRKI 51 Traiskirchen 0 0        0.00000 0.00000 0.00000 0.00000
OTULLN51 TullnWest    0 0        45.5928 0.00000 -0.2894 0.00000 0.00000 -13.428                                               F
OUNTER51 Unterach     0 0        19.6556 0.00000 -2.7444 0.00000 0.00000 -2.8444                                               F
OUNTER52 Unterach     0 0        0.00000 0.00000 0.00000 0.00000
OUSIEB51 Untersiebenb 0 0        0.00000 0.00000 0.00000 0.00000
OUSIEB52 Untersiebenb 0 0        0.00000 0.00000 -87.900 0.00000 -87.900 -88.000                                               F
OVILLA21 Villach      0 0        0.00000 7.74648 0.00000 0.00000 0.00000 0.00000 7.74648 0.00000                               F
OVILLA22 Villach      0 0        0.00000 0.00000 0.00000 0.00000
OVILLA51 Villach      0 0        0.00000 0.00000 0.00000 0.00000
OVILLA52 Villach      0 0        0.00000 0.00000 0.00000 0.00000
OVOEKL51 Voecklabruck 0 0        26.6439 0.00000 -5.0039 0.00000 0.00000 -5.6503                                               F
OVORCH51 Vorchdorf    0 0        42.1466 0.00000 -26.997 0.00000 0.00000 -28.024                                               F
OVORDW51 Vorderwald   0 0        34.8894 0.00000 -22.390 0.00000 0.00000 -79.024                                               F
OVORDW52 Vorderwald   0 0        0.00000 0.00000 -19.421 0.00000 0.00000 -36.000                                               F
OWAGEN51 Wagenham     0 0        12.5631 0.00000 -4.8000 0.00000 0.00000 -4.9003                                               F
OWAIDH51 WaidhofenTha 0 0        42.7038 0.00000 -8.5644 0.00000 0.00000 -38.604                                               F
OWALLS21 Wallsee      0 0        0.00000 0.00000 -155.62 -4.4803 0.00000 -160.00 0.00000 -4.4803                               F
OWALLS22 Wallsee      0 0        0.00000 0.00000 -38.928 0.00000 0.00000 -80.000                                               F
OWASEB51 Wasenbruck   0 0        44.6113 0.00000 -47.358 0.00000 0.00000 -48.305                                               F
OWASEB52 Wasenbruck   0 0        0.00000 0.00000 0.00000 0.00000
OWATTS51 Wattstrasse  0 0        35.4414 0.00000 -0.5398 0.00000 0.00000 -0.6398                                               F
OWEBLI51 Webling      0 0        34.5947 0.00000 -0.0861 0.00000 0.00000 -17.530                                               F
OWEGSC51 Wegscheid    0 0 110.00 23.3423 0.00000 0.10000 0.00000 0.10000 0.00000 0.00000 -99999.                               F
OWEGSC52 Wegscheid    0 0        0.00000 0.00000 0.00000 0.00000
OWEIBE21 Weibern      0 0        0.00000 0.00000 0.00000 0.00000
OWEIBE22 Weibern      0 0        0.00000 0.00000 0.00000 0.00000
OWEISS21 Weissenbach  0 0        0.00000 0.00000 0.00000 0.00000
OWEISS22 Weissenbach  0 0        0.00000 0.00000 0.00000 -53.931 0.00000 0.00000 0.00000 -53.931                               F
OWEISS51 Weissenbach  0 0        0.00000 0.00000 0.00000 0.00000
OWEISS52 Weissenbach  0 0        0.00000 0.00000 0.00000 0.00000
OWEISS59 Weissenbach  0 0        0.00000 0.00000 0.00000 0.00000
OWELS 51 Wels         0 0        55.2855 0.00000 -3.9339 0.00000 0.00000 -53.240                                               F
OWERN 51 Neudorf_Wern 0 0        51.7047 0.00000 -24.056 0.00000 0.00000 -741.53                                               F
OWERN 52 Neudorf_Wern 0 0        0.00000 0.00000 0.00000 0.00000
OWESS 51 WienEssling  0 0        0.00000 0.00000 -26.900 0.00000 0.00000 -27.000                                               F
OWESTT12 Westtirol    0 0        0.00000 0.00000 0.00000 0.00000
OWESTT13 Westtirol    0 0        0.00000 0.00000 0.00000 -15.755 0.00000 0.00000 0.00000 -15.755                               F
OWESTT21 Westtirol    0 2 241.72 0.00000 35.6635 -1.8103 -151.89 30.0000 -14.000 300.000 -300.00                               F
OWESTT22 Westtirol    0 0        0.00000 87.0000 -1.8103 0.00000 30.0000 -14.000 87.0000 0.00000                               F
OWESTT23 Westtirol    0 0        0.00000 0.00000 0.00000 0.00000
OWESTT51 Westtirol    0 0        0.00000 0.00000 0.00000 0.00000
OWESTT52 Westtirol    0 0        0.00000 0.00000 0.00000 0.00000
OWIEN 11 WienSuedOst  0 2 413.04 0.00000 0.00000 0.00000 -30.051 0.00000 0.00000 200.000 -200.00                               F
OWIEN 12 WienSuedOst  0 0        0.00000 0.00000 0.00000 -8.3849 0.00000 0.00000 0.00000 -8.3849                               F
OWIEN 21 WienSuedOst  0 0        0.00000 214.643 0.00000 0.00000 0.00000 0.00000 214.643 0.00000                               F
OWIEN 22 WienSuedOst  0 0        0.00000 0.00000 0.00000 0.00000
OWIEN 51 WienSuedOst  0 0        38.0839 0.00000 0.00000 0.00000
OWIEN 52 WienSuedOst  0 0        0.00000 0.00000 0.00000 0.00000
OWIEN 53 WienSuedOst  0 0        0.00000 0.00000 0.00000 0.00000
OWIENA51 WienA        0 0        168.256 0.00000 0.00000 0.00000
OWIENB51 WienB        0 0        134.023 0.00000 -3.6798 0.00000 0.00000 -6.0000                                               F
OWIENO51 WienO        0 0        192.593 0.00000 0.00000 0.00000
OWILTE51 Wilten       0 0 110.00 14.4258 0.00000 0.10000 0.00000 0.10000 0.00000 0.00000 -99999.                               F
OWILTE52 Wilten       0 0        0.00000 0.00000 0.00000 0.00000
OWINO 11 WienNord     0 0        0.00000 88.3678 0.00000 0.00000 0.00000 0.00000 88.3678 0.00000                               F
OWINO 12 WienNord     0 0        0.00000 0.00000 0.00000 0.00000
OWINO 51 WienNord     0 0        0.00000 0.00000 -1.7887 0.00000 0.00000 -27.600                                               F
OWINO 52 WienNord     0 0        0.00000 0.00000 0.00000 0.00000
OWINO 53 WienNord     0 0        0.00000 0.00000 0.00000 0.00000
OWISU 11 WienSued     0 0        0.00000 163.345 0.00000 0.00000 0.00000 0.00000 163.346 0.00000                               F
OWISU 12 WienSued     0 0        0.00000 0.00000 0.00000 -36.161 0.00000 0.00000 0.00000 -36.161                               F
OWISU 51 WienSued     0 0        0.00000 0.00000 0.00000 0.00000
OWISU 52 WienSued     0 0        0.00000 0.00000 0.00000 0.00000
OWISU 53 WienSued     0 0        0.00000 0.00000 0.00000 0.00000
OWIWE 51 WienWest     0 0        76.0149 0.00000 -0.4309 0.00000 36.0000 -8.0000                                               F
OWIWE 52 WienWest     0 0        0.98494 0.00000 -0.2585 0.00000 18.0000 -4.0000                                               F
OWNDF 51 Wiener_Neudo 0 0        131.293 0.00000 -4.2420 0.00000 0.00000 -42.400                                               F
OWNST 51 Wiener_Neust 0 0        29.3606 0.00000 -7.6523 0.00000 0.00000 -31.114                                               F
OWNST 52 Wiener_Neust 0 0        0.00000 0.00000 0.00000 0.00000
OWNSTF51 Wiener_Neust 0 0        0.00000 0.00000 0.00000 0.00000
OWOELL51 Woellersdorf 0 0        0.00000 0.00000 0.00000 0.00000
OWOLFS51 Wolfsberg    0 0        11.6397 0.00000 -7.3225 0.00000 0.00000 -17.876                                               F
OWOLFS52 Wolfsberg    0 0        0.00000 0.00000 0.00000 0.00000
OYAMST51 Y_Ybbsfeld_A 0 0        0.00000 0.00000 0.00000 0.00000
OYAMST52 Y_Ybbsfeld_A 0 0        0.00000 0.00000 0.00000 0.00000
OYBBSF21 Ybbsfeld     0 0        0.00000 0.00000 0.00000 -20.615 0.00000 0.00000 0.00000 -20.615                               F
OYBBSF22 Ybbsfeld     0 0        0.00000 0.00000 0.00000 0.00000
OYBBSF23 Ybbsfeld     0 0        0.00000 0.00000 0.00000 0.00000
OYBBSF51 Ybbsfeld     0 0        0.00000 0.00000 0.00000 0.00000
OYBBSF52 Ybbsfeld     0 0        0.00000 0.00000 0.00000 0.00000
OYFLAG51 Y_Flachgau   0 0        0.00000 0.00000 0.00000 0.00000
OYGRAN51 Y_Graz_Nord  0 0        0.00000 0.00000 0.00000 0.00000
OYGRAN52 Y_Graz_Nord  0 0        0.00000 0.00000 0.00000 0.00000
OYHESS51 Y_Hessenberg 0 0        0.00000 0.00000 0.00000 0.00000
OYHIMU51 Y_Hintermuhr 0 0        0.00000 0.00000 0.00000 0.00000
OYLASS51 Y_Lassee     0 0        0.00000 0.00000 0.00000 0.00000
OYLASS52 Y_Lassee     0 0        0.00000 0.00000 0.00000 0.00000
OYLOOS51 Y_Loosdorf   0 0        0.00000 0.00000 0.00000 0.00000
OYLOOS52 Y_Loosdorf   0 0        0.00000 0.00000 0.00000 0.00000
OYMAUT51 Y_Mauth      0 0        0.00000 0.00000 0.00000 0.00000
OYMELL11 Y_Mellach    0 0        0.00000 0.00000 0.00000 0.00000
OYMELL12 Y_Mellach    0 0        0.00000 0.00000 0.00000 0.00000
OYOBER51 Y_Oberdraubu 0 0        0.00000 0.00000 0.00000 0.00000
OYPBEU21 YbbsPersenbe 0 0        0.00000 16.1830 -105.89 0.00000 0.00000 -119.00 16.1830 0.00000                               F
OYPBEU22 YbbsPersenbe 0 0        0.00000 5.29273 -62.191 0.00000 0.00000 -72.000 5.29273 0.00000                               F
OYPBEU23 YbbsPersenbe 0 0        0.00000 5.18005 -62.191 0.00000 0.00000 -72.000 5.18005 0.00000                               F
OYPONG51 Y_Pongau_Pin 0 0        0.00000 0.00000 0.00000 0.00000
OYREIS51 Y_ReisseckKr 0 0        0.00000 0.00000 0.00000 0.00000
OYSALZ21 Y_Salzach    0 0        0.00000 0.00000 0.00000 0.00000
OYSALZ22 Y_Salzach    0 0        0.00000 0.00000 0.00000 0.00000
OYSCHA51 Y_Scharndorf 0 0        0.00000 0.00000 0.00000 0.00000
OYSCHA52 Y_Scharndorf 0 0        0.00000 0.00000 0.00000 0.00000
OYSTRO51 Y_Strobl     0 0        0.00000 0.00000 0.00000 0.00000
OZAYA 11 Zaya         0 0        0.00000 92.5657 0.00000 0.00000 0.00000 0.00000 92.5657 0.00000                               F
OZAYA 12 Zaya         0 0        0.00000 0.00000 0.00000 0.00000
OZAYA 21 Zaya         0 2 232.13 0.00000 94.9106 0.00000 86.6699 0.00000 0.00000 300.000 -300.00                               F
OZAYA 22 Zaya         0 0        0.00000 0.00000 0.00000 0.00000
...